data/rede/ESB01S4/ESB01S4_EXP_POWERS.csv
Element, Terminal, P(kW), Q(kvar),  P_Normal, Q_Normal, P_Emergency, Q_Emergency
"Transformer.TRF_TEJ0018A",   1, 5339366653091439968256.0, 5050508317419275026432.0, 5339366652570771652608.0, 5050508316926774607872.0, 5339366652381437624320.0, 5050508316747683069952.0
"Transformer.TRF_TEJ0018A",   2, -5220371942469142577152.0, -4644572948764439347200.0
"Reactor.TRF_TEJ0018A_R",   1, 6025783652902728704.0,      0.0, 6025783651510773760.0,      0.0, 6025783651023588352.0,      0.0
"Reactor.TRF_TEJ0018A_R",   2,      0.0,      0.0
"Transformer.TRF_TEJ0087A",   1, 9610226621145078038528.0, 4676275953743117680640.0, 9610226620251945041920.0, 4676275953308524347392.0, 9610226619927169597440.0, 4676275953150490836992.0
"Transformer.TRF_TEJ0087A",   2, -9447993242916304715776.0, -4234286091490762424320.0
"Reactor.TRF_TEJ0087A_R",   1, 63163532412702564352.0,      0.0, 63163532408195932160.0,      0.0, 63163532406618611712.0,      0.0
"Reactor.TRF_TEJ0087A_R",   2,      0.0,      0.0
"Transformer.TRF_TEJ0109A",   1, 1001960223036536782848.0, 453602634293118369792.0, 1001960222315614437376.0, 453602633966745878528.0, 1001960222053460869120.0, 453602633848064966656.0
"Transformer.TRF_TEJ0109A",   2, -959854904095647989760.0, -445421919802024067072.0
"Reactor.TRF_TEJ0109A_R",   1,      0.0,      0.0,      0.0,      0.0,      0.0,      0.0
"Reactor.TRF_TEJ0109A_R",   2,      0.0,      0.0
"Transformer.TRF_TEJ0110A",   1, 2616484718426173472768.0, 296438570229264809984.0, 2616484717008596238336.0, 296438570068658290688.0, 2616484716493114179584.0, 296438570010255949824.0
"Transformer.TRF_TEJ0110A",   2, -2545146644688503570432.0, -269918652070659784704.0
"Reactor.TRF_TEJ0110A_R",   1, 437283705.9,     -0.0, 437271848.2,      0.0, 437267698.0,      0.0
"Reactor.TRF_TEJ0110A_R",   2,      0.0,      0.0
"Transformer.TRF_TEJ0154A",   1, 86321966795396694016.0, 30976726473171224.0, 86321965945439879168.0, 30976726168163348.0, 86321965636364681216.0, 30976726057251392.0
"Transformer.TRF_TEJ0154A",   2, -5651173760.4, 11805844167710090.0
"Reactor.TRF_TEJ0154A_R",   1,      0.0,      0.0,      0.0,      0.0,      0.0,      0.0
"Reactor.TRF_TEJ0154A_R",   2,      0.0,      0.0
"Transformer.TRF_TEK0015A",   1, 1504518895688932392960.0, 494132908569805389824.0, 1504518891212850593792.0, 494132907099714617344.0, 1504518889585184604160.0, 494132906565136154624.0
"Transformer.TRF_TEK0015A",   2, -1063962206997407989760.0, -490096090524438167552.0
"Reactor.TRF_TEK0015A_R",   1, 1283348.6,      0.0, 1282706.2,      0.0, 1282481.4,      0.0
"Reactor.TRF_TEK0015A_R",   2,      0.0,      0.0
"Transformer.TRF_TEK0025A",   1, 7065616755329645568.0, 1416138580536604672.0, 7065616575360375808.0, 1416138544465949184.0, 7065616509917004800.0, 1416138531349347584.0
"Transformer.TRF_TEK0025A",   2, -3040659392991395328.0, -1411452088479671296.0
"Reactor.TRF_TEK0025A_R",   1,      0.0,      0.0,      0.0,      0.0,      0.0,      0.0
"Reactor.TRF_TEK0025A_R",   2,      0.0,      0.0
"Transformer.TRF_TEK0031A",   1, 16891585555018946560.0, 8218421781734189.0, 16891585045543960576.0, 8218421533854539.0, 16891584860280332288.0, 8218421443716485.0
"Transformer.TRF_TEK0031A",   2, -701408642.3, 10810350009646.7
"Reactor.TRF_TEK0031A_R",   1,      0.0,      0.0,      0.0,      0.0,      0.0,      0.0
"Reactor.TRF_TEK0031A_R",   2,      0.0,      0.0
"Transformer.TRF_TEK0080A",   1, 21209080194669289472.0, 9923596168064508.0, 21209079623783034880.0, 9923595900950394.0, 21209079416188035072.0, 9923595803817990.0
"Transformer.TRF_TEK0080A",   2, -2103375331.4, 409030256066381.7
"Reactor.TRF_TEK0080A_R",   1,      0.0,      0.0,      0.0,      0.0,      0.0,      0.0
"Reactor.TRF_TEK0080A_R",   2,      0.0,      0.0
"Transformer.TRF_TEK0082A",   1, 24834682711151283798016.0, 12022605976661257093120.0, 24834682707661849362432.0, 12022605974972003254272.0, 24834682706392963350528.0, 12022605974357728559104.0
"Transformer.TRF_TEK0082A",   2, -24353549429102958608384.0, -11191536561844853407744.0
"Reactor.TRF_TEK0082A_R",   1, 6082473.8,      0.0, 6081075.3,      0.0, 6080585.8,      0.0
"Reactor.TRF_TEK0082A_R",   2,      0.0,      0.0
"Transformer.TRF_TEK0121A",   1, -8306665943460116168704.0, 792619109184516521984.0, 8306665942177390002176.0, 792619109062119260160.0, 8306665941710943551488.0, 792619109017611141120.0
"Transformer.TRF_TEK0121A",   2, 8471361636029358407680.0, -633817904077937836032.0
"Reactor.TRF_TEK0121A_R",   1, 35753991567984316.0,      0.0, 35753991460763080.0,      0.0, 35753991423235644.0,      0.0
"Reactor.TRF_TEK0121A_R",   2,      0.0,      0.0
"Transformer.TRF_TEK0128A",   1, 140476186279644758016.0, 10385554054122706944.0, 140476185124376526848.0, 10385553968712495104.0, 140476184704278970368.0, 10385553937654237184.0
"Transformer.TRF_TEK0128A",   2, -22209073556191989760.0, -10307305357194536960.0
"Reactor.TRF_TEK0128A_R",   1, 82066195.5,      0.0, 82061058.6,      0.0, 82059260.7,      0.0
"Reactor.TRF_TEK0128A_R",   2,      0.0,      0.0
"Transformer.TRF_TEK0218A",   1, -17864755578878832934912.0, 1715563528421384126464.0, 17864755577494605660160.0, 1715563528288455884800.0, 17864755576991251431424.0, 1715563528240118628352.0
"Transformer.TRF_TEK0218A",   2, 18139264555994616692736.0, -1036363952512043319296.0
"Reactor.TRF_TEK0218A_R",   1, 3315455868155659.0,      0.0, 3315455835505133.5,      0.0, 3315455824077449.5,      0.0
"Reactor.TRF_TEK0218A_R",   2,      0.0,      0.0
"Transformer.TRF_TEK0222A",   1, -22602183040412100.0, 22423003171714180.0, 22602161722701364.0, 22422982023000596.0, 22602153970806548.0, 22422974332559296.0
"Transformer.TRF_TEK0222A",   2, 32668780272025720.0, -22400873979594996.0
"Reactor.TRF_TEK0222A_R",   1,  18370.6,      0.0,  18293.7,      0.0,  18266.8,      0.0
"Reactor.TRF_TEK0222A_R",   2,      0.0,      0.0
"Transformer.TRF_TEK0332A",   1, 215115142387417251840.0, 89725551325348400.0, 215115139551499649024.0, 89725550142473648.0, 215115138520256839680.0, 89725549712337360.0
"Transformer.TRF_TEK0332A",   2, -1324292710.0, 14401848517423768.0
"Reactor.TRF_TEK0332A_R",   1,      0.0,      0.0,      0.0,      0.0,      0.0,      0.0
"Reactor.TRF_TEK0332A_R",   2,      0.0,      0.0
"Transformer.TRF_TKS0915A",   1, -96963929188389688967168.0, 30333416327595713101824.0, 96963929186399240060928.0, 30333416326973035118592.0, 96963929185675420631040.0, 30333416326746605617152.0
"Transformer.TRF_TKS0915A",   2, 99900247595757749665792.0, -15814885702598779731968.0
"Reactor.TRF_TKS0915A_R",   1, 234474517414503968.0,     -8.2, 234474517139925568.0,      8.2, 234474517043823136.0,      8.2
"Reactor.TRF_TKS0915A_R",   2,      0.0,      0.0
"Transformer.TRF_TKS0916A",   1, -79770556138608773824512.0, 24154392295938017198080.0, 79770556136602017464320.0, 24154392295330371600384.0, 79770556135872275677184.0, 24154392295109411471360.0
"Transformer.TRF_TKS0916A",   2, 81833918718756203266048.0, -14220410020695598170112.0
"Reactor.TRF_TKS0916A_R",   1, 852488766793371648.0,      0.0, 852488766269815936.0,      0.0, 852488766086571520.0,      0.0
"Reactor.TRF_TKS0916A_R",   2,      0.0,      0.0
"Transformer.TRF_TKS0917A",   1, -121438824991831921524736.0, 44619493396149134426112.0, 121438824989197563068416.0, 44619493395181206503424.0, 121438824988239617589248.0, 44619493394829237288960.0
"Transformer.TRF_TKS0917A",   2, 124762746630561570226176.0, -26939087033230807793664.0
"Reactor.TRF_TKS0917A_R",   1, 164874129448889312.0,      0.0, 164874129218641856.0,      0.0, 164874129138055264.0,      0.0
"Reactor.TRF_TKS0917A_R",   2,      0.0,      0.0
"Transformer.TRF_TKS0918A",   1, -66858902992050383224832.0, 19733308876672341114880.0, 66858902988097855684608.0, 19733308875505758371840.0, 66858902986660568367104.0, 19733308875081546465280.0
"Transformer.TRF_TKS0918A",   2, 67714451554687736872960.0, -16294127500434138464256.0
"Reactor.TRF_TKS0918A_R",   1, 1231434514881573888.0,      0.0, 1231434514252322560.0,      0.0, 1231434514032084480.0,      0.0
"Reactor.TRF_TKS0918A_R",   2,      0.0,      0.0
"Transformer.TRF_TKS1630A",   1, 1453156341646744616960.0, 690767590235758919680.0, 1453156341430511206400.0, 690767590132970815488.0, 1453156341351880851456.0, 690767590095593406464.0
"Transformer.TRF_TKS1630A",   2, -1404319564924862332928.0, -651919202994035228672.0
"Reactor.TRF_TKS1630A_R",   1, 9283549658.3,     -0.0, 9283495022.7,      0.0, 9283475900.2,      0.0
"Reactor.TRF_TKS1630A_R",   2,      0.0,      0.0
"Transformer.TRF_TKS2146A",   1, 1670916369644936232960.0, 639011206959351332864.0, 1670916369491698122752.0, 639011206900748255232.0, 1670916369435975221248.0, 639011206879438045184.0
"Transformer.TRF_TKS2146A",   2, -1632475027629810909184.0, -538299759742790336512.0
"Reactor.TRF_TKS2146A_R",   1, 1048830082293200322560.0, -67108.9, 1048830082274836086784.0,  67108.9, 1048830082268408709120.0,  67108.9
"Reactor.TRF_TKS2146A_R",   2,      0.0,      0.0
"Transformer.TRF_TKT3119A",   1, 6384031276897585332224.0, 8177182146788504633344.0, 6384031276402147852288.0, 8177182146153907486720.0, 6384031276221988864000.0, 8177182145923146317824.0
"Transformer.TRF_TKT3119A",   2, -6205879814279307198464.0, -7765450495942163693568.0
"Reactor.TRF_TKT3119A_R",   1, 496004930074271040.0,      0.0, 496004929674913792.0,      0.0, 496004929535138752.0,      0.0
"Reactor.TRF_TKT3119A_R",   2,      0.0,      0.0
"Transformer.TRF_TOK4790A",   1, -632175821704321826816.0, 182078032731710128128.0, 632175821511781122048.0, 182078032676254908416.0, 632175821441766260736.0, 182078032656089382912.0
"Transformer.TRF_TOK4790A",   2, 648703291083342479360.0, -165728165498024919040.0
"Reactor.TRF_TOK4790A_R",   1, 28651721758980252.0,      0.0, 28651721662997340.0,      0.0, 28651721629403324.0,      0.0
"Reactor.TRF_TOK4790A_R",   2,      0.0,      0.0
"Transformer.TRF_TOK5044A",   1, -2883441065436723544064.0, 1090596385629856202752.0, 2883441064980291518464.0, 1090596385457221009408.0, 2883441064814315569152.0, 1090596385394444599296.0
"Transformer.TRF_TOK5044A",   2, 2936658458389079654400.0, -994785206449491542016.0
"Reactor.TRF_TOK5044A_R",   1, 6193837995500659.0,     -0.0, 6193837950873579.0,      0.0, 6193837935254101.0,      0.0
"Reactor.TRF_TOK5044A_R",   2,      0.0,      0.0
"Transformer.TRF_TOK5079A",   1, 85868452930820853727232.0, 66901285122929946787840.0, 85868452929023812567040.0, 66901285121529837780992.0, 85868452928370323226624.0, 66901285121020707995648.0
"Transformer.TRF_TOK5079A",   2, -82533941758100531838976.0, -48626062289586423332864.0
"Reactor.TRF_TOK5079A_R",   1, 97609233304026624.0,      0.0, 97609233126867296.0,      0.0, 97609233064861536.0,      0.0
"Reactor.TRF_TOK5079A_R",   2,      0.0,      0.0
"Transformer.TRF_TOK5095A",   1, 375463856552709914624.0, 134860668559013462016.0, 375463855756216893440.0, 134860668272925786112.0, 375463855466583031808.0, 134860668168893890560.0
"Transformer.TRF_TOK5095A",   2, -288974392652003704832.0, -134189788984198840320.0
"Reactor.TRF_TOK5095A_R",   1, 3023747.6,      0.0, 3022761.5,      0.0, 3022416.4,      0.0
"Reactor.TRF_TOK5095A_R",   2,      0.0,      0.0
"Transformer.TRF_TOK5109A",   1, 13251738047662981644288.0, 7906354278246448627712.0, 13251738047018921099264.0, 7906354277862184321024.0, 13251738046784717455360.0, 7906354277722451083264.0
"Transformer.TRF_TOK5109A",   2, -12895553811122676039680.0, -6746287243770620542976.0
"Reactor.TRF_TOK5109A_R",   1, 104013550059473403904.0,      0.0, 104013550053690261504.0,      0.0, 104013550051666165760.0,      0.0
"Reactor.TRF_TOK5109A_R",   2,      0.0,      0.0
"Transformer.TRF_TOP7583A",   1, -3397195050638673182720.0, 2518580277170196185088.0, 3397195050184172109824.0, 2518580276833242578944.0, 3397195050018898706432.0, 2518580276710713851904.0
"Transformer.TRF_TOP7583A",   2, 3477509030433285210112.0, -2165723796517162057728.0
"Reactor.TRF_TOP7583A_R",   1, 178815110064129088.0,      4.1, 178815109824344832.0,      4.1, 178815109740420352.0,      4.1
"Reactor.TRF_TOP7583A_R",   2,      0.0,      0.0
"Transformer.TRF_TOP9748A",   1, 354365139835020247040.0, 157414578224741253120.0, 354365139575273816064.0, 157414578109357785088.0, 354365139480820580352.0, 157414578067400196096.0
"Transformer.TRF_TOP9748A",   2, -333085409916938813440.0, -154599324196491165696.0
"Reactor.TRF_TOP9748A_R",   1,  21055.7,      0.0,  20973.4,      0.0,  20944.6,      0.0
"Reactor.TRF_TOP9748A_R",   2,      0.0,      0.0
"Transformer.TRF_TOQ0606A",   1, -28851911298649325406519296.0, -33530012474896782318370816.0, 28851911298648943154429952.0, 33530012474896335641772032.0, 28851911298648801420509184.0, 33530012474896176727982080.0
"Transformer.TRF_TOQ0606A",   2, 3774628017178021379035889664.0, 14453532873213598090726998016.0
"Reactor.TRF_TOQ0606A_R",   1, 695129273770137006330603372544.0,      0.0, 695129273770136584118138306560.0,      0.0, 695129273770136443380649951232.0,      0.0
"Reactor.TRF_TOQ0606A_R",   2,      0.0,      0.0
"Transformer.TRF_18L0205A",   1, -9573432502529034289152.0, 9990494919656227209216.0, 9573432501266991284224.0, 9990494918339205267456.0, 9573432500808067317760.0, 9990494917860287053824.0
"Transformer.TRF_18L0205A",   2, 9815931787278848884736.0, -9602016013478470352896.0
"Reactor.TRF_18L0205A_R",   1, 490064514018443520.0,      0.0, 490064513621484992.0,      0.0, 490064513482549440.0,      0.0
"Reactor.TRF_18L0205A_R",   2,      0.0,      0.0
"Transformer.TRF_29L1163A",   1, -34029203684865473511424.0, 18088136307299955245056.0, 34029203683648760446976.0, 18088136306653214539776.0, 34029203683206320095232.0, 18088136306418035720192.0
"Transformer.TRF_29L1163A",   2, 34817402031065224183808.0, -14926177122618982793216.0
"Reactor.TRF_29L1163A_R",   1, 148060818753594080.0,      0.0, 148060818535402176.0,      0.0, 148060818459035008.0,      0.0
"Reactor.TRF_29L1163A_R",   2,      0.0,      0.0
"Transformer.TRF_29L1290A",   1, 511808165199206219776.0, 138111147840588283904.0, 511808162560784859136.0, 138111147128611749888.0, 511808161601358921728.0, 138111146869711192064.0
"Transformer.TRF_29L1290A",   2, -296785712391021264896.0, -137757740340358627328.0
"Reactor.TRF_29L1290A_R",   1, 993565761.4,      0.0, 993547887.6,      0.0, 993541631.8,      0.0
"Reactor.TRF_29L1290A_R",   2,      0.0,      0.0
"Transformer.TRF_29L1390A",   1, -5728662014518584410112.0, 7308279959953522819072.0, 5728662013218009382912.0, 7308279958294328508416.0, 5728662012745074343936.0, 7308279957690985218048.0
"Transformer.TRF_29L1390A",   2, 5921820481746927353856.0, -7186411315405509361664.0
"Reactor.TRF_29L1390A_R",   1, 2246845817724874.0,      0.1, 2246845790846364.2,      0.1, 2246845781438886.0,      0.1
"Reactor.TRF_29L1390A_R",   2,      0.0,      0.0
"Transformer.TRF_29L1610A",   1, -51809678711664033136640.0, 17568117341024465977344.0, 51809678709094275350528.0, 17568117340153086738432.0, 51809678708159809585152.0, 17568117339836221751296.0
"Transformer.TRF_29L1610A",   2, 52602746855550068195328.0, -14267605362833927176192.0
"Reactor.TRF_29L1610A_R",   1, 717125488135052288.0,      0.0, 717125487654859008.0,      0.0, 717125487486791296.0,      0.0
"Reactor.TRF_29L1610A_R",   2,      0.0,      0.0
"Transformer.TRF_29L2218A",   1, 13858699445743279669248.0, 18867209654492528115712.0, 13858699444959014027264.0, 18867209653424830283776.0, 13858699444673826521088.0, 18867209653036576145408.0
"Transformer.TRF_29L2218A",   2, -13333033522990050967552.0, -16927951133098102489088.0
"Reactor.TRF_29L2218A_R",   1, 2584036402176930304.0,      0.0, 2584036401265406976.0,      0.0, 2584036400946373632.0,      0.0
"Reactor.TRF_29L2218A_R",   2,      0.0,      0.0
"Transformer.TRF_61L0274A",   1, -48237008915875707748352.0, 10966198586146514010112.0, 48237008913840446898176.0, 10966198585683817267200.0, 48237008913100353568768.0, 10966198585515564859392.0
"Transformer.TRF_61L0274A",   2, 49070114279924663582720.0, -7495629384457619767296.0
"Reactor.TRF_61L0274A_R",   1, 33323955791155464.0,      0.0, 33323955687642004.0,      0.0, 33323955651412292.0,      0.0
"Reactor.TRF_61L0274A_R",   2,      0.0,      0.0
"Transformer.TRF_61L0284A",   1, -47990807153693788471296.0, 12681830644594046402560.0, 47990807151943916453888.0, 12681830644131632775168.0, 47990807151307606982656.0, 12681830643963485224960.0
"Transformer.TRF_61L0284A",   2, 48883597748932156850176.0, -8893857054888830173184.0
"Reactor.TRF_61L0284A_R",   1, 2892353862882886144.0,      0.0, 2892353861918514688.0,      0.0, 2892353861580984832.0,      0.0
"Reactor.TRF_61L0284A_R",   2,      0.0,      0.0
"Transformer.TRF_62L1170A",   1, -56936246989379508109312.0, 19056090082587564834816.0, 56936246987397355536384.0, 19056090081924155965440.0, 56936246986676572782592.0, 19056090081682916376576.0
"Transformer.TRF_62L1170A",   2, 58076205203907776872448.0, -13960028624131459121152.0
"Reactor.TRF_62L1170A_R",   1, 91486565563652144.0,     -8.2, 91486565392139072.0,      8.2, 91486565332109504.0,      8.2
"Reactor.TRF_62L1170A_R",   2,      0.0,      0.0
"Transformer.TRF_67E3739A",   1, 12067629199883258298368.0, 10339962871239877328896.0, 12067629198825974923264.0, 10339962870333960093696.0, 12067629198441510338560.0, 10339962870004537360384.0
"Transformer.TRF_67E3739A",   2, -11830247493704962015232.0, -9794377341915442970624.0
"Reactor.TRF_67E3739A_R",   1, 35546076314132472.0,      0.5, 35546076207223444.0,      0.5, 35546076169805284.0,      0.5
"Reactor.TRF_67E3739A_R",   2,      0.0,      0.0
"Line.SMT_100024720"    ,   1, -21315284308624779939676160.0, -28556863714583162149404672.0, 21315284308558396925149184.0, 28556863714494226261606400.0, 21315284308498336102481920.0, 28556863714413760049315840.0
"Line.SMT_100024720"    ,   2, 23309765937625358000979968.0, 29946154694644376954470400.0
"Line.SMT_1071302"      ,   1, -7352398992356.4, -1459748376723358208.0, 7352023803329.0, 1459673886536634112.0, 7351162105452.7, 1459502804679212800.0
"Line.SMT_1071302"      ,   2, 15217111482736.6, 1350137986145709056.0
"Line.SMT_1071308"      ,   1, 473307385971136043941888.0, 219809663373001837510656.0, 473307385903594663313408.0, 219809663341634818932736.0, 473307385748472188633088.0, 219809663269594057408512.0
"Line.SMT_1071308"      ,   2, -473302244338533637554176.0, -219808241370136299175936.0
"Line.SMT_1071320"      ,   1, -5857161951787.0, -3658181094451558912.0, 5857042583184.7, 3658106540944643584.0, 5856768428922.4, 3657935313659531264.0
"Line.SMT_1071320"      ,   2, 12145748023966.6, 3548385131148862464.0
"Line.SMT_1071684"      ,   1, -9443945394837.4, 802321864326401280.0, 9441064028919.8, 802077074381296256.0, 9441054392244.5, 802076255685827712.0
"Line.SMT_1071684"      ,   2, 9413002424680.8, -9025681553675751424.0
"Line.SMT_1071706"      ,   1, 202247947215925554446336.0, 632303822416671559122944.0, 202247947141829516853248.0, 632303822185019276787712.0, 202247947141581717372928.0, 632303822184244437843968.0
"Line.SMT_1071706"      ,   2, -202196083208178118950912.0, -632222394531776858947584.0
"Line.SMT_1071716"      ,   1, -202317714960204922093568.0, -632406669167503752560640.0, 202317714886082342944768.0, 632406668935810668036096.0, 202317714885834442801152.0, 632406668935035829092352.0
"Line.SMT_1071716"      ,   2, 202359457563057162551296.0, 632472203681967846195200.0
"Line.SMT_1071722"      ,   1, -202359457560503536058368.0, -632468544656302617395200.0, 202359457486364884336640.0, 632468544424584434155520.0, 202359457486116950638592.0, 632468544423809595211776.0
"Line.SMT_1071722"      ,   2, 202578280607311644852224.0, 632812074800069904171008.0
"Line.SMT_1079010"      ,   1, 343008056708111745941504.0, 578964283557502638882816.0, 343008056584012155584512.0, 578964283348034533720064.0, 343008056583597087260672.0, 578964283347333984288768.0
"Line.SMT_1079010"      ,   2, -342992453246887932198912.0, -578939747476808004534272.0
"Line.SMT_1079016"      ,   1, 82696270715641602768896.0, 457978410135064749801472.0, 82696270672541505290240.0, 457978409896373016068096.0, 82696270672397355450368.0, 457978409895574689021952.0
"Line.SMT_1079016"      ,   2, -82685069070955387551744.0, -457961823532091885748224.0
"Line.SMT_1079024"      ,   1, -390645773539821452525568.0, 238117570269614065057792.0, 390645773331504465707008.0, 238117570142634732683264.0, 390645773330807741480960.0, 238117570142210067791872.0
"Line.SMT_1079024"      ,   2, 390657201226168561303552.0, -238100718631058831048704.0
"Line.SMT_1079036"      ,   1, -390828214710530111176704.0, 238041148230714259406848.0, 390828214647101564387328.0, 238041148192081900994560.0, 390828214501424863641600.0, 238041148103354855981056.0
"Line.SMT_1079036"      ,   2, 390962617817002101702656.0, -238004840524987481718784.0
"Line.SMT_1079044"      ,   1, -397346649093639103315968.0, 229827658378561548451840.0, 397346649029239088611328.0, 229827658341312203063296.0, 397346648881331420790784.0, 229827658255761521246208.0
"Line.SMT_1079044"      ,   2, 397481832089117381361664.0, -229791119917242621362176.0
"Line.SMT_1079050"      ,   1, -445394684488957760110592.0, 207556620675731913965568.0, 445394684421441142652928.0, 207556620644268761939968.0, 445394684266375509180416.0, 207556620572007245807616.0
"Line.SMT_1079050"      ,   2, 445581403515745871069184.0, -207505501035411399507968.0
"Line.SMT_1079128"      ,   1, 1193336810708.1, -1315360782572169728.0, 1193269231075.1, 1315286292622542080.0, 1193114020709.2, 1315115211309660928.0
"Line.SMT_1079128"      ,   2, -359841642420.4, 979957271344.4
"Line.SMT_1079134"      ,   1, 473298994306871206084608.0, 219805026061634282455040.0, 473298994239331033415680.0, 219805026030267901411328.0, 473298994084211377307648.0, 219805025958228716945408.0
"Line.SMT_1079134"      ,   2, -473273286167362778693632.0, -219797916036541926342656.0
"Line.SMT_1079146"      ,   1, 526143387678.9, -3513555188578256896.0, 526132223574.4, 3513480635332789760.0, 526106582938.9, 3513309408648144896.0
"Line.SMT_1079146"      ,   2, 87173254588.6, 53291277490.5
"Line.SMT_112631633"    ,   1, -113427850592.0, -190975781081146848.0, 113410243227.6, 190946135979380768.0, 113369804335.6, 190878049976423552.0
"Line.SMT_112631633"    ,   2, 108156568101.8, 321269705516.6
"Line.SMT_119412019"    ,   1, -550655711199917178880.0, -118096956667142225920.0, 550655638163750715392.0, 118096941003363926016.0, 550655470421346549760.0, 118096905028312645632.0
"Line.SMT_119412019"    ,   2, 550656026038644244480.0, 112255028653141606400.0
"Line.SMT_119412045"    ,   1, -2426998329148.3, -6868978271338507264.0, 2426971936735.0, 6868903574578006016.0, 2426911321192.6, 6868732018281909248.0
"Line.SMT_119412045"    ,   2, 6102618612671.1, 6758755034636166144.0
"Line.SMT_119412053"    ,   1, -34557910744.1, -1543165539448811264.0, 34556237971.8, 1543090842667516160.0, 34552396109.9, 1542919286323662080.0
"Line.SMT_119412053"    ,   2, -509883738337.1, -1519906994617.0
"Line.SMT_119412066"    ,   1, 5744196302195.5, -16127992882864844800.0, 5744169697963.5, 16127918186102681600.0, 5744108595936.1, 16127746629802770432.0
"Line.SMT_119412066"    ,   2, -5532070765064.9, 1578135142699440896.0
"Line.SMT_13222128"     ,   1, 343111921880227326722048.0, 579101324860425334947840.0, 343111921756087605264384.0, 579101324650903341367296.0, 343111921755672402722816.0, 579101324650202590609408.0
"Line.SMT_13222128"     ,   2, -343050810578680103829504.0, -579005231110802506776576.0
"Line.SMT_142649126"    ,   1, 1673287247707.6, -3659036181762414592.0, 1673228233310.4, 3658907132900708352.0, 1673174839331.9, 3658790374406783488.0
"Line.SMT_142649126"    ,   2, -12228901464619.5, 3549190003700428288.0
"Line.SMT_14453361"     ,   1, -9572694374943597527040.0, 9972447159429581766656.0, 9572694330553856425984.0, 9972447113186138652672.0, 9572694228603791998976.0, 9972447006978671116288.0
"Line.SMT_14453361"     ,   2, 9573432502370896445440.0, -9990494919690987503616.0
"Line.SMT_147874701"    ,   1, -387665047842273502429184.0, 122744225551754444406784.0, 387665047581784474124288.0, 122744225469277264674816.0, 387665047610727721861120.0, 122744225478441399484416.0
"Line.SMT_147874701"    ,   2, 387675568689616106029056.0, -122731647791029771304960.0
"Line.SMT_147874704"    ,   1, -387675568688674031796224.0, 122731647792048366419968.0, 387675568428178561040384.0, 122731647709579826954240.0, 387675568457122479865856.0, 122731647718742988685312.0
"Line.SMT_147874704"    ,   2, 387696234779948055789568.0, -122706941504175999025152.0
"Line.SMT_147874707"    ,   1, -387696234779551106859008.0, 122706941505341545775104.0, 387696234519042885419008.0, 122706941422889968074752.0, 387696234547988213530624.0, 122706941432051250757632.0
"Line.SMT_147874707"    ,   2, 387716901056012376604672.0, -122682235250846073880576.0
"Line.SMT_147874710"    ,   1, -387716901057100479725568.0, 122682235251337042329600.0, 387716900796579574710272.0, 122682235168902443171840.0, 387716900825526312108032.0, 122682235178061830029312.0
"Line.SMT_147874710"    ,   2, 387744706886714353778688.0, -122648994161740413403136.0
"Line.SMT_151270669"    ,   1, -343030362041046016196608.0, -578996230918870459744256.0, 343030361916938104340480.0, 578996230709390409203712.0, 343030361916523036016640.0, 578996230708689859772416.0
"Line.SMT_151270669"    ,   2, 343036863442053475860480.0, 579006454124348090351616.0
"Line.SMT_152399170"    ,   1, 601948668665.0, -5748010694037697536.0, 601922928689.3, 5747764902887163904.0, 601922842602.4, 5747764080843182080.0
"Line.SMT_152399170"    ,   2, -587279823970.9, 123160110867.3
"Line.SMT_153416646"    ,   1, 342992453248971326881792.0, 578941207234547084689408.0, 342992453124877843431424.0, 578941207025088106332160.0, 342992453124462775107584.0, 578941207024387624009728.0
"Line.SMT_153416646"    ,   2, -342913134551779124445184.0, -578816478514116802117632.0
"Line.SMT_153416650"    ,   1, 260216863832721210736640.0, 120838068378041023725568.0, 260216863765175904239616.0, 120838068346674709790720.0, 260216863610044403417088.0, 120838068274635609210880.0
"Line.SMT_153416650"    ,   2, -260215309891513356386304.0, -120837715074575927083008.0
"Line.SMT_154526653"    ,   1, 4452073664193.9, -14605409162270631936.0, 4452050964132.3, 14605334692773402624.0, 4451998828826.0, 14605163658433613824.0
"Line.SMT_154526653"    ,   2, -4120122557361.7, 11318792322423586816.0
"Line.SMT_154526659"    ,   1, 735969219440.6, -547767269822195712.0, 735869164131.0, 547692800642845120.0, 735639366771.5, 547521767033127936.0
"Line.SMT_154526659"    ,   2, 914558446290.7, 79003311942.7
"Line.SMT_154526671"    ,   1, 4408735646382.3, -11318792205637210112.0, 4408706640080.1, 11318717736144510976.0, 4408640021210.3, 11318546701815126016.0
"Line.SMT_154526671"    ,   2, -4707107978690.3, 7484405717609740288.0
"Line.SMT_154526677"    ,   1, -42355699178.4, -14749706244042928128.0, 42355485329.3, 14749631774470221824.0, 42354994181.5, 14749460739957086208.0
"Line.SMT_154526677"    ,   2, -906093230853.1, 14640150194451896320.0
"Line.SMT_154526683"    ,   1, 3793228453827.0, -7484406576619030528.0, 3793190711388.0, 7484332107136817152.0, 3793104028203.9, 7484161072831514624.0
"Line.SMT_154526683"    ,   2, -3475859625351.8, 3759574027508408832.0
"Line.SMT_154526697"    ,   1, -390666917311525370724352.0, 238087830657939273678848.0, 390666917103197914923008.0, 238087830530976315867136.0, 390666917102501190696960.0, 238087830530551684530176.0
"Line.SMT_154526697"    ,   2, 390681953874057860481024.0, -238065657235158979313664.0
"Line.SMT_154652767"    ,   1, 190128454007467928453120.0, 621882431659679414222848.0, 190128453936377361334272.0, 621882431427152569171968.0, 190128453936139594629120.0, 621882431426374777438208.0
"Line.SMT_154652767"    ,   2, -190064099221852466970624.0, -621781624254613545811968.0
"Line.SMT_154652841"    ,   1, -47990301628479142100992.0, 12680882870607516008448.0, 47990301566965865512960.0, 12680882854353344397312.0, 47990301425688117248000.0, 12680882817022329618432.0
"Line.SMT_154652841"    ,   2, 47990807152174183743488.0, -12681830645694761795584.0
"Line.SMT_154652870"    ,   1, -153048609579856277012480.0, 42679995437462459514880.0, 153048609512406600646656.0, 42679995418653069672448.0, 153048609357494780690432.0, 42679995375453483302912.0
"Line.SMT_154652870"    ,   2, 153068859885412436410368.0, -42678570679265954627584.0
"Line.SMT_154652883"    ,   1, -153068859885266071977984.0, 42678570679026023661568.0, 153068859817808007004160.0, 42678570660217397182464.0, 153068859662876792586240.0, 42678570617019572420608.0
"Line.SMT_154652883"    ,   2, 153112736615496159330304.0, -42675486899673791201280.0
"Line.SMT_154652887"    ,   1, -56924759699897536479232.0, 19040958314812960407552.0, 56924759630225508139008.0, 19040958291508123926528.0, 56924759470209530593280.0, 19040958237983830441984.0
"Line.SMT_154652887"    ,   2, 56936246989326508883968.0, -19056090082603675156480.0
"Line.SMT_154652923"    ,   1, -56923332442246415908864.0, 19039078412041926475776.0, 56923332372575268372480.0, 19039078388739103260672.0, 56923332212561329258496.0, 19039078335219431899136.0
"Line.SMT_154652923"    ,   2, 56924759699844478533632.0, -19040958315460930043904.0
"Line.SMT_154652934"    ,   1, -56923221488653823901696.0, 19038997069975888330752.0, 56923221418982760251392.0, 19038997046673149001728.0, 56923221258969005686784.0, 19038996993153662189568.0
"Line.SMT_154652934"    ,   2, 56923289469672891613184.0, -19039086575847643021312.0
"Line.SMT_154652952"    ,   1, -153047822659206976110592.0, 42680299377847017930752.0, 153047822591757635289088.0, 42680299359037485481984.0, 153047822436846553530368.0, 42680299315837580345344.0
"Line.SMT_154652952"    ,   2, 153048304802669021626368.0, -42680265447331214655488.0
"Line.SMT_154652964"    ,   1, -96189515111981404651520.0, 23636489842690875195392.0, 96189515045832935604224.0, 23636489826436323999744.0, 96189514893909540470784.0, 23636489789104438902784.0
"Line.SMT_154652964"    ,   2, 96227310544412253093888.0, -23647081455523540762624.0
"Line.SMT_156904098"    ,   1, -550656149968078766080.0, -109574656776085880832.0, 550656076707422011392.0, 109574642198002401280.0, 550655908449430077440.0, 109574608716470026240.0
"Line.SMT_156904098"    ,   2, 550656409919743393792.0, 104724746619127103488.0
"Line.SMT_156904104"    ,   1, -550656050143973736448.0, -111448483811270098944.0, 550655976931409985536.0, 111448468993619001344.0, 550655808783873605632.0, 111448434961870913536.0
"Line.SMT_156904104"    ,   2, 550656150365332307968.0, 109574656719628550144.0
"Line.SMT_156904110"    ,   1, 550656494555831992320.0, 100721679208485912576.0, 550656375456860995584.0, 100721657423855271936.0, 550656252320636796928.0, 100721634900762558464.0
"Line.SMT_156904110"    ,   2, -550656413064744271872.0, -104689791671374184448.0
"Line.SMT_156904119"    ,   1, 413015141637406024794112.0, -167097766043128497700864.0, 413015141568949010825216.0, 167097766015432132657152.0, 413015141411723545673728.0, 167097765951821821509632.0
"Line.SMT_156904119"    ,   2, -412572357758646417883136.0, 167216531458489562693632.0
"Line.SMT_156904134"    ,   1, 9890406707728.8, -806543403333510784.0, 9889490726208.0, 806468706824557312.0, 9887386988429.4, 806297151106191744.0
"Line.SMT_156904134"    ,   2, -24713383417799.2, 696312271267720064.0
"Line.SMT_160287032"    ,   1, 1600277522934.3, -1649409780864765184.0, 1600039682888.9, 1649164638574407168.0, 1600038887437.3, 1649163818700526080.0
"Line.SMT_160287032"    ,   2, -1875530242196.2, -2288760605655.2
"Line.SMT_160287038"    ,   1, -211958360923.5, -1794240732645557760.0, 211929401558.9, 1793995589819868928.0, 211929304704.9, 1793994769944197888.0
"Line.SMT_160287038"    ,   2, 11168717511824.7, 1684262037832202752.0
"Line.SMT_160287048"    ,   1, 202620019855298157084672.0, 632875804140014370029568.0, 202620019781061459312640.0, 632875803908138883612672.0, 202620019780813190070272.0, 632875803907363373580288.0
"Line.SMT_160287048"    ,   2, -202578280611474374131712.0, -632810280543361169358848.0
"Line.SMT_161188180"    ,   1, -12320241642712944657563648.0, -18152665320913025022033920.0, 12320241642636900114104320.0, 18152665320800980062699520.0, 12320241642639114169745408.0, 18152665320804242090360832.0
"Line.SMT_161188180"    ,   2, 12860817757126770747768832.0, 19015377116802767327854592.0
"Line.SMT_162395039"    ,   1, -16966281618309548431376384.0, -24218360770408843608850432.0, 16966281618256211380011008.0, 24218360770332706723594240.0, 16966281618207955274956800.0, 24218360770263824038100992.0
"Line.SMT_162395039"    ,   2, 17518201803070255180808192.0, 24602811583964464331882496.0
"Line.SMT_165499508"    ,   1, 202317714977585648107520.0, 632410327349625056395264.0, 202317714903463471611904.0, 632410327117931837652992.0, 202317714903215537913856.0, 632410327117156998709248.0
"Line.SMT_165499508"    ,   2, -202253202152781672087552.0, -632309042518119097040896.0
"Line.SMT_166122419"    ,   1, -17933960476963016926035968.0, -25243700384345324328583168.0, 17933960476852436550549504.0, 25243700384189674713776128.0, 17933960476855657776021504.0, 25243700384194205904273408.0
"Line.SMT_166122419"    ,   2, 17969075394179871075729408.0, 25299740487608721142185984.0
"Line.SMT_166122433"    ,   1, -18842596223565057541275648.0, -26621763621922911150931968.0, 18842596223449604525391872.0, 26621763621759792587997184.0, 18842596223452969632268288.0, 26621763621764547116793856.0
"Line.SMT_166122433"    ,   2, 19005156376894030449999872.0, 26881194146497613541670912.0
"Line.SMT_166122467"    ,   1, -25051751666009789075292160.0, -31160806916496080565698560.0, 25051751665931809649065984.0, 31160806916399087319252992.0, 25051751665861260516261888.0, 31160806916311332547461120.0
"Line.SMT_166122467"    ,   2, 26446783108639457491812352.0, 32132538268975424881033216.0
"Line.SMT_167582451"    ,   1, -11084305360946505082470400.0, -16179782204917912432541696.0, 11084305360880280981733376.0, 16179782204821245603610624.0, 11084305360880059790917632.0, 16179782204820921333579776.0
"Line.SMT_167582451"    ,   2, 11344494304803716144824320.0, 16610856563202717621682176.0
"Line.SMT_167582487"    ,   1, -11344494304803632392962048.0, -16610856563202348254494720.0, 11344494304733587918815232.0, 16610856563099786582949888.0, 11344494304735628028280832.0, 16610856563102773732704256.0
"Line.SMT_167582487"    ,   2, 11499558244410771644612608.0, 16858325121278884708352000.0
"Line.SMT_168237001"    ,   1, 8106398942893.0, 71308737663387832.0, 8091163781863.1, 71174720067067360.0, 8091607524417.4, 71178623492202912.0
"Line.SMT_168237001"    ,   2, -10449788485610.7, -102080936404368688.0
"Line.SMT_168237007"    ,   1, 1859793144990.5, -61545483763271776.0, 1855743159868.5, 61411459022809008.0, 1855861120600.2, 61415362656026368.0
"Line.SMT_168237007"    ,   2, 1470038138131.0, -1073440053664.6
"Line.SMT_168237051"    ,   1, -12009776560031086017511424.0, -17660661046877455537668096.0, 12009776559956933407145984.0, 17660661046768410612989952.0, 12009776559959093775695872.0, 17660661046771588888788992.0
"Line.SMT_168237051"    ,   2, 12194852819795889633624064.0, 17956026528716647907196928.0
"Line.SMT_169123925"    ,   1, 1453157350234506395648.0, 686350726557739778048.0, 1453157262125104889856.0, 686350684942183301120.0, 1453157162100552892416.0, 686350637698900295680.0
"Line.SMT_169123925"    ,   2, -1453156341706884382720.0, -690767590224920182784.0
"Line.SMT_169123937"    ,   1, 1453161588520708472832.0, 667689398036338966528.0, 1453161500039035486208.0, 667689357381345476608.0, 1453161399591869612032.0, 667689311228523708416.0
"Line.SMT_169123937"    ,   2, -1453160513766406488064.0, -672437558240271794176.0
"Line.SMT_169123943"    ,   1, 1453161788179486605312.0, 666806019246257471488.0, 1453161699680286670848.0, 666805978637015187456.0, 1453161599213223542784.0, 666805932536131485696.0
"Line.SMT_169123943"    ,   2, -1453161587838306484224.0, -667689397675847712768.0
"Line.SMT_169123955"    ,   1, 1668283082079929368576.0, 621730478877767106560.0, 1668282989273128370176.0, 621730444290821062656.0, 1668282883915941412864.0, 621730405026636890112.0
"Line.SMT_169123955"    ,   2, -1668280647940097179648.0, -630564066846423252992.0
"Line.SMT_169123967"    ,   1, 1668280647826277400576.0, 630564066443954094080.0, 1668280555164762112000.0, 630564031420457287680.0, 1668280449972507770880.0, 630563991660686868480.0
"Line.SMT_169123967"    ,   2, -1668278205906878464000.0, -639397624376663080960.0
"Line.SMT_169123979"    ,   1, 1668278205414829981696.0, 639397623952144203776.0, 1668278112899584229376.0, 639397588494012514304.0, 1668278007873380024320.0, 639397548240830988288.0
"Line.SMT_169123979"    ,   2, -1668277012226248540160.0, -643703972863027052544.0
"Line.SMT_169123985"    ,   1, 1453160513548172656640.0, 672437558618964492288.0, 1453160425160857616384.0, 672437517718492807168.0, 1453160324820809285632.0, 672437471286996500480.0
"Line.SMT_169123985"    ,   2, -1453157350203406942208.0, -686350726387848970240.0
"Line.SMT_170656463"    ,   1, 20114851194755.5, -109551020155070224.0, 20069927473820.2, 109306353196812544.0, 20069777227261.9, 109305534912671216.0
"Line.SMT_170656463"    ,   2, 16018220614801.6, 5979482875422.6
"Line.SMT_170656469"    ,   1, -390657201221529325535232.0, 238100828124140328189952.0, 390657201013206701572096.0, 238100827997170223284224.0, 390657201012509977346048.0, 238100827996745591947264.0
"Line.SMT_170656469"    ,   2, 390658404147659364368384.0, -238099054258320501112832.0
"Line.SMT_170656475"    ,   1, -390662105630814567923712.0, 238094926121519296806912.0, 390662105422489460932608.0, 238094925994552413126656.0, 390662105421792736706560.0, 238094925994127781789696.0
"Line.SMT_170656475"    ,   2, 390666917313088738820096.0, -238087830656620987154432.0
"Line.SMT_190195485"    ,   1, 4233827028577.1, -10840926462763.9,      0.0,      0.0,      0.0,      0.0
"Line.SMT_190195485"    ,   2, -9878737837944.7, -219303361388799008.0
"Line.SMT_190195537"    ,   1, 9633960421610.6, -583017618162035200.0, 9629915531630.4, 582772833876158208.0, 9629902003570.3, 582772015199616768.0
"Line.SMT_190195537"    ,   2, 1700492959855.5, 363713326877301440.0
"Line.SMT_190928595"    ,   1, -5021946750958.9, -19465344114390302720.0, 5021883320922.6, 19465098256051884032.0, 5021883108782.0, 19465097433783193600.0
"Line.SMT_190928595"    ,   2, 4798071057542.3, 13603623735908782080.0
"Line.SMT_190928665"    ,   1, -5433777066626.6, -13603623853290518528.0, 5433678861961.1, 13603377994965080064.0, 5433678533517.4, 13603377172696432640.0
"Line.SMT_190928665"    ,   2, 5481583746125.8, 3317964761633662464.0
"Line.SMT_190928683"    ,   1, 5765175946238.5, 19465344297427648512.0, 5765103128797.7, 19465098439093260288.0, 5765102885261.2, 19465097616824582144.0
"Line.SMT_190928683"    ,   2, -5727885345151.6, -28313223194196787200.0
"Line.SMT_191624120"    ,   1, -8031121265921259208704.0, -3729502938568477114368.0, 8031121204160682262528.0, 3729502909888017203200.0, 8031121134048140853248.0, 3729502877329060265984.0
"Line.SMT_191624120"    ,   2, 8031123256857109463040.0, 3729465692424629649408.0
"Line.SMT_191624198"    ,   1, -8031102656063522996224.0, -3729810407049125167104.0, 8031102594304028180480.0, 3729810378366736400384.0, 8031102524192714653696.0, 3729810345805590560768.0
"Line.SMT_191624198"    ,   2, 8031118590953954213888.0, 3729512460388869865472.0
"Line.SMT_191624219"    ,   1, -13758797677767743691030528.0, -19741416512578867511164928.0, 13758797677657552010084352.0, 19741416512420761175064576.0, 13758797677685306088751104.0, 19741416512460584111833088.0
"Line.SMT_191624219"    ,   2, 13855241399152848828104704.0, 19923511792006719399264256.0
"Line.SMT_191624290"    ,   1, 2800209444684.0, 359870283784262336.0, 2799865387138.0, 359826067060777216.0, 2799075189037.8, 359724514366179520.0
"Line.SMT_191624290"    ,   2, -111951593171.6, -437116536616717120.0
"Line.SMT_191624360"    ,   1, 806521834044.7, -347613474299690176.0, 806419243067.0, 347569257262166336.0, 806183622030.2, 347467703846314880.0
"Line.SMT_191624360"    ,   2, -519621413512.0, -526254327884.9
"Line.SMT_191624393"    ,   1, -13863272522403018233085952.0, -19927241257693606737608704.0, 13863272522292023393255424.0, 19927241257534061587464192.0, 13863272522319981482868736.0, 19927241257574245301485568.0
"Line.SMT_191624393"    ,   2, 13892516313635362049097728.0, 19982456422320169577086976.0
"Line.SMT_191624407"    ,   1, 1288917408752405053440.0, 598228100385519960064.0, 1288917347987747241984.0, 598228072182684319744.0, 1288917279005804593152.0, 598228040165942099968.0
"Line.SMT_191624407"    ,   2, -1288916879125798715392.0, -598599692473374998528.0
"Line.SMT_191624424"    ,   1, 1288917534079533711360.0, 598179208743123419136.0, 1288917473313988280320.0, 598179180542183473152.0, 1288917404331037687808.0, 598179148527593324544.0
"Line.SMT_191624424"    ,   2, -1288917479924623474688.0, -598216366726768230400.0
"Line.SMT_192507117"    ,   1, -25373175518629325701120.0, 44326782160351594020864.0, 25373175481598037983232.0, 44326782095658162585600.0, 25373175396548164452352.0, 44326781947076553998336.0
"Line.SMT_192507117"    ,   2, 25374888700706474164224.0, -44330136083170869641216.0
"Line.SMT_194821447"    ,   1, 47909466941411343466496.0, 22247789798810942701568.0, 47909466837070498496512.0, 22247789750358028320768.0, 47909466718619503165440.0, 22247789695352768036864.0
"Line.SMT_194821447"    ,   2, -47909218595603977601024.0, -22248738987604529119232.0
"Line.SMT_194821453"    ,   1, 47909185338028616318976.0, 22248740500499784007680.0, 47909185233689323241472.0, 22248740452045238042624.0, 47909185115240097906688.0, 22248740397038119682048.0
"Line.SMT_194821453"    ,   2, -47908887318772685209600.0, -22249879510062366457856.0
"Line.SMT_194821464"    ,   1, 22930830806789.0, -473502572406285440.0, 22925259592167.1, 473387531460882112.0, 22918934974856.1, 473256933376954496.0
"Line.SMT_194821464"    ,   2, -9062176698690.9, 363814623327200640.0
"Line.SMT_196315228"    ,   1, -64927015173747445334016.0, -105920701765611012751360.0, 64927015173227192254464.0, 105920701764762270171136.0, 64927015173358222311424.0, 105920701764976045457408.0
"Line.SMT_196315228"    ,   2, 108716724637988709990400.0, 188600572751231733202944.0
"Line.SMT_197064798"    ,   1, -229267357436.7, -1479132771792372480.0, 229246105682.0, 1478995664760699392.0, 229246034605.9, 1478995206208753920.0
"Line.SMT_197064798"    ,   2, 199992206396.5, 202413291071.2
"Line.SMT_197064912"    ,   1, -40915509676.9, -2927578781599022592.0, 40914679491.4, 2927519380318522368.0, 40912772801.4, 2927382953201769472.0
"Line.SMT_197064912"    ,   2, 21173860938.8, 40358553787.7
"Line.SMT_197064998"    ,   1, -741329337560143092514816.0, -886632961826762921082880.0, 741329337478052443062272.0, 886632961728582250397696.0, 741329337403780110483456.0, 886632961639752126169088.0
"Line.SMT_197064998"    ,   2, 741497327361130516971520.0, 886748099339694488158208.0
"Line.SMT_197065164"    ,   1, -9369699887710245731958784.0, -14985435369678124523454464.0, 9369699887680757560246272.0, 14985435369630963635060736.0, 9369699887654078297145344.0, 14985435369588293134974976.0
"Line.SMT_197065164"    ,   2, 11084305360946941021650944.0, 16179782230046172648570880.0
"Line.SMT_197752434"    ,   1, -11844708531236093902716928.0, -17397226916845982733828096.0, 11844708531162959199600640.0, 17397226916738565601755136.0, 11844708531165089503379456.0, 17397226916741694485430272.0
"Line.SMT_197752434"    ,   2, 12009776560030897038950400.0, 17660661046877620893908992.0
...
"Line.CMT_FEJ0070"      ,   1, 30372967432517897420800.0, 14104389083779716612096.0, 30372967283513335218176.0, 14104389014586004602880.0, 30372967209011054116864.0, 14104388979989151744000.0
"Line.CMT_FEJ0070"      ,   2, -30372954149721141673984.0, -14104410814521540608000.0
"Line.CMT_FEK0005"      ,   1, -12641157309041809031168.0, -5868610472069836046336.0, 12641157159970716778496.0, 5868610402864133570560.0, 12641157085435170652160.0, 5868610368261282856960.0
"Line.CMT_FEK0005"      ,   2, 12641159604321694777344.0, 5868577732141576617984.0
"Line.CMT_FF67E3688"    ,   1, -153048304814769789992960.0, 42680265416876281036800.0, 153048304666529060880384.0, 42680265375536700719104.0, 153048304592408696324096.0, 42680265354866902171648.0
"Line.CMT_FF67E3688"    ,   2, 153048609579771283636224.0, -42679995432855528275968.0
"Line.CMT_FF67E3780"    ,   1, -8725577510956.1, -3548390723221509632.0, 8725174591750.1, 3548226869909688320.0, 8724973132147.1, 3548144943253777920.0
"Line.CMT_FF67E3780"    ,   2, 10920300648533.3, 3513564340537262080.0
"Line.CMT_FF67E3995"    ,   1, 8720375043519.5, -1684290263658126080.0, 8719526071738.5, 1684126289643497472.0, 8719101585847.9, 1684044302636183040.0
"Line.CMT_FF67E3995"    ,   2, -8152388279368.2, 1649411850662790144.0
"Line.CMT_FKS0217"      ,   1, -10867877566183.7, -1350119981204301568.0, 10866559738725.6, 1349956267068572160.0, 10865900824996.6, 1349874410000707328.0
"Line.CMT_FKS0217"      ,   2, 12850011459507.4, 1315350714098119936.0
"Line.CMT_FKS0255"      ,   1, 2854332981741.8, -1578125616863827456.0, 2854036052305.3, 1577961448228557056.0, 2853887587587.0, 1577879363910921984.0
"Line.CMT_FKS0255"      ,   2, 898826492386.8, 1543163974986482944.0
"Line.CMT_FKS0258"      ,   1, 8584755350043.3, -696304856857030656.0, 8582731315647.4, 696140688523420928.0, 8581719298449.5, 696058604356616064.0
"Line.CMT_FKS0258"      ,   2, -5478427684921.4, 661350416320427008.0
"Line.CMT_FKS0911"      ,   1, -387642341855908983734272.0, 122770534730589202808832.0, 387642341701553563369472.0, 122770534681703163625472.0, 387642341624375819632640.0, 122770534657260135645184.0
"Line.CMT_FKS0911"      ,   2, 387644301292905884024832.0, -122768610312046315044864.0
"Line.CMT_FKS1415"      ,   1, -1186637237755.3, -196483423210841568.0, 1186243746768.4, 196418268963501760.0, 1186047001275.0, 196385691839831840.0
"Line.CMT_FKS1415"      ,   2, -165379901490.1, 190976508491452064.0
"Line.CMT_FKS1439"      ,   1, -390658404133485972291584.0, 238099054270840263671808.0, 390658403994139382251520.0, 238099054185911110598656.0, 390658403924466087231488.0, 238099054143446500507648.0
"Line.CMT_FKS1439"      ,   2, 390660902720397264289792.0, -238096590433639498514432.0
"Line.CMT_FKS1661"      ,   1, 2760186253692.3, 61541888475412416.0, 2756295713603.2, 61455143900132176.0, 2754350443558.7, 61411771612492064.0
"Line.CMT_FKS1661"      ,   2, 1835330323735.7, -71300753818596008.0
"Line.CMT_FKS1750"      ,   1, 8655082694458020462592.0, 4019143860822456401920.0, 8655082595754039050240.0, 4019143814987481350144.0, 8655082546402048344064.0, 4019143792069993562112.0
"Line.CMT_FKS1750"      ,   2, -8655080238113475264512.0, -4019156766902501507072.0
"Line.CMT_FKS1912"      ,   1, 260215309889893885280256.0, 120837715033283507519488.0, 260215309741443608739840.0, 120837714964346765836288.0, 260215309667218453692416.0, 120837714929878411771904.0
"Line.CMT_FKS1912"      ,   2, -260214327640450698051584.0, -120836767536750748762112.0
"Line.CMT_FKS2103"      ,   1, 7389785378001.8, -144366839580320512.0, 7381405402251.8, 144203128382647808.0, 7377215414376.9, 144121272783811488.0
"Line.CMT_FKS2103"      ,   2, -1579850669899.0, 109603184915145312.0
"Line.CMT_FKS2198"      ,   1, -2121544744917.0, -14640157802581602304.0, 2121521027155.8, 14639994133270851584.0, 2121509168275.2, 14639912298615476224.0
"Line.CMT_FKS2198"      ,   2, 479096740556.1, 14605406481606477824.0
"Line.CMT_FKS2199"      ,   1, -5882818347084.9, -582513900556206592.0, 5881165477563.8, 582350234195108608.0, 5880339042803.2, 582268401014559616.0
"Line.CMT_FKS2199"      ,   2, 9196613867509.9, 547773288892600192.0
"Line.CMT_FKX1007"      ,   1, 1288917484286076780544.0, 598216381052755509248.0, 1288917397788035907584.0, 598216340907016454144.0, 1288917354539015733248.0, 598216320834147057664.0
"Line.CMT_FKX1007"      ,   2, -1288917408923287814144.0, -598228102759909294080.0
"Line.CMT_FOP0511"      ,   1, -6320796815945.3, -6758760948767092736.0, 6320643285408.3, 6758596780193444864.0, 6320566520139.9, 6758514695906620416.0
"Line.CMT_FOP0511"      ,   2, 7280498209095.9, 6723797581532370944.0
"Line.CMT_FOP9012"      ,   1, 1567197202824.4, 347615793898159360.0, 1566759075962.2, 347518614157941376.0, 1566540012531.1, 347470024287832384.0
"Line.CMT_FOP9012"      ,   2, -2641897099858.0, -359867169540779776.0
"Line.CMT_FOP9748"      ,   1, 354365201704104427520.0, 157197299394536275968.0, 354365126433660010496.0, 157197266004376813568.0, 354365088798437801984.0, 157197249309297115136.0
"Line.CMT_FOP9748"      ,   2, -354365195579261190144.0, -157208202962513362944.0
"Line.CMT_FOQ0592"      ,   1, -27222591510089718694936576.0, -33029507237012498221629440.0, 27222591509984994507358208.0, 33029507236885431614177280.0, 27222591509932630266085376.0, 33029507236821900457934848.0
"Line.CMT_FOQ0592"      ,   2, 27244213449415257002868736.0, 33051129141175285306097664.0
"Line.CMT_FT29L1103"    ,   1, 473302244345380150968320.0, 219808241358965793882112.0, 473302244196939236114432.0, 219808241290027743576064.0, 473302244122718778687488.0, 219808241255558718423040.0
"Line.CMT_FT29L1103"    ,   2, -473298994307288153456640.0, -219805026069187989078016.0
"Line.CMT_FT29L1373"    ,   1, 19647565611282265538560.0, -37025894009514559012864.0, 19647565534655196168192.0, 37025893865110628204544.0, 19647565496341663580160.0, 37025893792908662800384.0
"Line.CMT_FT29L1373"    ,   2, -19647544773631744671744.0, 37025879822675526811648.0
"Line.CMT_FT29L1920"    ,   1, 47912827561980861612032.0, 22234594183044283760640.0, 47912827413424536289280.0, 22234594114104719310848.0, 47912827339146382016512.0, 22234594079634934988800.0
"Line.CMT_FT29L1920"    ,   2, -47912794311431748059136.0, -22234595718891097292800.0
"Line.CMT_FW30L1207"    ,   1, 16939418047704924684288.0, 22261802685997598638080.0, 16939417958309559271424.0, 22261802568514107604992.0, 16939417913611874467840.0, 22261802509772359991296.0
"Line.CMT_FW30L1207"    ,   2, -16939408209666184839168.0, -22261827755161744834560.0
"Line.CMT_FY61L0075"    ,   1, -56923289467796099956736.0, 19039086553938628968448.0, 56923289314672789946368.0, 19039086502723601825792.0, 56923289238111147524096.0, 19039086477116088254464.0
"Line.CMT_FY61L0075"    ,   2, 56923332424417696284672.0, -19039078409944430542848.0
"Line.CMT_FZ34L1129"    ,   1, 463260963609.5, -363825648673473920.0, 463052443002.1, 363661885371113920.0, 462948182698.3, 363580003719933888.0
"Line.CMT_FZ34L1129"    ,   2, -4514481552338.5, 329034611113969088.0
"Line.CMT_FZ34L1139"    ,   1, 47909218597390382006272.0, 22248738988218554253312.0, 47909218448864549273600.0, 22248738919244097388544.0, 47909218374601637101568.0, 22248738884756868956160.0
"Line.CMT_FZ34L1139"    ,   2, -47909185333978772537344.0, -22248740513725594730496.0
"Line.CMT_REJ0089"      ,   1, 18413648274476307381747712.0, 26129219388455453498277888.0, 18413648274402820491313152.0, 26129219388351175987298304.0, 18413648274366077046095872.0, 26129219388299035084324864.0
"Line.CMT_REJ0089"      ,   2, -18393574585135235879403520.0, -26109145720207724448317440.0
"Line.CMT_REJ0100"      ,   1, 343013458349300973043712.0, 578969650440827746385920.0, 343013458266289925521408.0, 578969650300714034921472.0, 343013458224784368205824.0, 578969650230657145634816.0
"Line.CMT_REJ0100"      ,   2, -343008056689032360361984.0, -578964283559095803314176.0
"Line.CMT_REK0112"      ,   1, 17913894809489809074028544.0, 25211677591475675000209408.0, 17913894809418317195902976.0, 25211677591375056801366016.0, 17913894809382570183098368.0, 25211677591324749849427968.0
"Line.CMT_REK0112"      ,   2, -17893821112396927192793088.0, -25191603914123663254749184.0
"Line.CMT_SEJ0088"      ,   1, -18049338059069063436435456.0, -25427832140325527660527616.0, 18049338058997030392430592.0, 25427832140224046173257728.0, 18049338058961014944169984.0, 25427832140173309724590080.0
"Line.CMT_SEJ0088"      ,   2, 18069411754226620169191424.0, 25447905815379993895632896.0
"Line.CMT_SEJ0099"      ,   1, -464332457769018982400.0, -213771775513875283968.0, 464332308645133877248.0, 213771706859450728448.0, 464332234083191357440.0, 213771672532238467072.0
"Line.CMT_SEJ0099"      ,   2, 464332472372335214592.0, 213736829455088418816.0
"Line.CMT_SEJ0130"      ,   1, 9279459194443.9, -2239470863203478272.0, 9278778943606.1, 2239306693945439232.0, 9278438818187.1, 2239224609316419840.0
"Line.CMT_SEJ0130"      ,   2, -4448605945666.8, 2204513740042889984.0
"Line.CMT_SEJ0151"      ,   1, 20973185671985025253376.0, 9735398666608872259584.0, 20973185528660628602880.0, 9735398600080107765760.0, 20973185456998432374784.0, 9735398566815724470272.0
"Line.CMT_SEJ0151"      ,   2, -20973178823219643154432.0, -9735424204757197127680.0
"Line.CMT_SEJ0155"      ,   1, 202681120861160231403520.0, 632965663264686267695104.0, 202681120811488263536640.0, 632965663109562517946368.0, 202681120786652313157632.0, 632965663032000777289728.0
"Line.CMT_SEJ0155"      ,   2, -202675866615938669346816.0, -632960443912582747652096.0
"Line.CMT_SEJ0156"      ,   1, 202897954273155837067264.0, 633385550231442340970496.0, 202897954223429108367360.0, 633385550076210680168448.0, 202897954198565744017408.0, 633385549998594849767424.0
"Line.CMT_SEJ0156"      ,   2, -202892700366155097833472.0, -633380331275762960171008.0
"Line.CMT_SEK0015"      ,   1, -44634692607861994815488.0, 28352616634130624413696.0, 44634692490317262749696.0, 28352616559464471855104.0, 44634692431544896716800.0, 28352616522131399770112.0
"Line.CMT_SEK0015"      ,   2, 44634737693742006796288.0, -28352597299884076302336.0
"Line.CMT_SEK0016"      ,   1, -44633898837952170033152.0, 28336582505929690316800.0, 44633898720389712838656.0, 28336582431293183098880.0, 44633898661608480047104.0, 28336582393974925295616.0
"Line.CMT_SEK0016"      ,   2, 44633943914295886610432.0, -28336563182756599693312.0
"Line.CMT_SEK0082"      ,   1, 379592798719113741467648.0, 176782270866591544508416.0, 379592798574580777091072.0, 176782270799280313729024.0, 379592798502314395566080.0, 176782270765624715116544.0
"Line.CMT_SEK0082"      ,   2, -379590712212164012146688.0, -176780219307473881792512.0
"Line.CMT_SEK0100"      ,   1, 101020963833040705945600.0, 46915887976088764153856.0, 101020963684155027095552.0, 46915887906943674613760.0, 101020963609712187670528.0, 46915887872371125649408.0
"Line.CMT_SEK0100"      ,   2, -101020816651122131337216.0, -46915775748984522407936.0
"Line.CMT_SEK0122"      ,   1, 480868770685138080104448.0, 223838343787107909107712.0, 480868770539603515932672.0, 223838343719363389947904.0, 480868770466836233846784.0, 223838343685491163922432.0
"Line.CMT_SEK0122"      ,   2, -480865430300361788227584.0, -223835038382151627177984.0
"Line.CMT_SEK0161"      ,   1, -3661521372104580556390400.0, -6896691639631970809413632.0, 3661521372089947602812928.0, 6896691639604407856791552.0, 3661521372082630589153280.0, 6896691639590626380480512.0
"Line.CMT_SEK0161"      ,   2, 3681535855277052241379328.0, 6916706121536735115476992.0
"Line.CMT_SEK0340"      ,   1, 741562536333426259132416.0, 886752866711463295713280.0, 741562536229148211281920.0, 886752866586768583950336.0, 741562536177009187356672.0, 886752866524421362286592.0
"Line.CMT_SEK0340"      ,   2, -741546733073949727391744.0, -886737098544926783700992.0
"Line.CMT_SEL0003"      ,   1, -23309765937617450966188032.0, -29946154694644222335647744.0, 23309765937525268083113984.0, 29946154694525792907427840.0, 23309765937479178789060608.0, 29946154694466582488285184.0
"Line.CMT_SEL0003"      ,   2, 23330213647082544286400512.0, 29966602374881689544425472.0
"Line.CMT_SEL0004"      ,   1, 185970873075440472293376.0, 116910495436213223161856.0, 185970872967008519979008.0, 116910495368047528771584.0, 185970872912792543821824.0, 116910495333964681576448.0
"Line.CMT_SEL0004"      ,   2, -185969932720167570112512.0, -116909576356256662159360.0
"Line.CMT_SEL0009"      ,   1, 21084164751653.2, 44606255061934170112.0, 21084087018823.3, 44606090608161562624.0, 21084048152408.4, 44606008381275258880.0
"Line.CMT_SEL0009"      ,   2, -14189356095614.8, -44641333726459641856.0
"Line.CMT_SEL0018"      ,   1, -13738761086946505947873280.0, -19721379933724589770670080.0, 13738761086891627003248640.0, 19721379933645811480526848.0, 13738761086864188604678144.0, 19721379933606426630422528.0
"Line.CMT_SEL0018"      ,   2, 13758797677767735101095936.0, 19741416512574022788055040.0
"Line.CMT_SEL0019"      ,   1, -14335874170730073429114880.0, -20378012261814853487820800.0, 14335874170672825810026496.0, 20378012261733476742463488.0, 14335874170644202000482304.0, 20378012261692790517268480.0
"Line.CMT_SEL0019"      ,   2, 14355922160464426086432768.0, 20398060238694156427329536.0
"Line.CMT_SEL2001"      ,   1, -6238466722384984047353856.0, -11753392067410776297570304.0, 6238466722360052835942400.0, 11753392067363806535221248.0, 6238466722347587767107584.0, 11753392067340319506563072.0
"Line.CMT_SEL2001"      ,   2, 6258483368907548831776768.0, 11773408710257318301794304.0
"Line.CMT_SEL2002"      ,   1, 9365513648111151187230720.0, 14977271606684894017617920.0, 9365513648073723768471552.0, 14977271606625039353380864.0, 9365513648055009522221056.0, 14977271606595112021262336.0
"Line.CMT_SEL2002"      ,   2, -9345496970597483226857472.0, -14957254935624918004400128.0
"Line.CMT_SEL2004"      ,   1, 7104771637874544527540224.0, 13353482986346636233408512.0, 7104771637846151572488192.0, 13353482986293271264755712.0, 7104771637831954558091264.0, 13353482986266588780429312.0
"Line.CMT_SEL2004"      ,   2, -7084754979154444421169152.0, -13333466332358379980193792.0
"Line.CMT_SESB04"       ,   1, -44912522066712275714048.0, -85906208658833063018496.0, 44912522066532784668672.0, 85906208658489734070272.0, 44912522066443034951680.0, 85906208658318069596160.0
"Line.CMT_SESB04"       ,   2, 64927015173747428556800.0, 105920701765610979196928.0
"Line.CMT_SF67E3724"    ,   1, 202253202147855176826880.0, 632309042532052373602304.0, 202253202098291321339904.0, 632309042377099751456768.0, 202253202073509393596416.0, 632309042299623373275136.0
"Line.CMT_SF67E3724"    ,   2, -202247947218620411543552.0, -632303822411785094299648.0
"Line.CMT_SF67E3825"    ,   1, -5636491611993.6, -3549204774840548864.0, 5636231365585.5, 3549040902017196032.0, 5636101242381.4, 3548958965605518848.0
"Line.CMT_SF67E3825"    ,   2, 1261975025295.7, 3514370820888865792.0
"Line.CMT_SF67E4029"    ,   1, 202625274187215076851712.0, 632881023582149397184512.0, 202625274137557134737408.0, 632881023427047390707712.0, 202625274112728163680256.0, 632881023349496521687040.0
"Line.CMT_SF67E4029"    ,   2, -202620019867224677285888.0, -632875804150006074572800.0
"Line.CMT_SKS0913"      ,   1, -387663088385407814991872.0, 122746149976900961828864.0, 387663088231044744216576.0, 122746149928024837980160.0, 387663088153863175274496.0, 122746149903586759278592.0
"Line.CMT_SKS0913"      ,   2, 387665047837657419218944.0, -122744225549386323591168.0
"Line.CMT_SKS0914"      ,   1, -285852709337268838465536.0, 90241287346394700447744.0, 285852709181598352801792.0, 90241287297250845786112.0, 285852709103763109969920.0, 90241287272678918455296.0
"Line.CMT_SKS0914"      ,   2, 285853773408515014000640.0, -90240258306024941813760.0
"Line.CMT_SKS0919"      ,   1, 285872793699936465059840.0, -90222205477241348947968.0, 285872793544256617709568.0, 90222205428108382699520.0, 285872793466416710811648.0, 90222205403541891186688.0
"Line.CMT_SKS0919"      ,   2, -285871729611437271678976.0, 90223234536639691751424.0
"Line.CMT_SKS0920"      ,   1, -285889729954770799558656.0, 90206149081565954572288.0, 285889729799083167580160.0, 90206149032442182238208.0, 285889729721239368368128.0, 90206149007880304459776.0
...